#       Name:                   T90
#       Creating user name:     ANP10
#       Creation time:          Fri Oct 29 13:37:53 2021


#       Modifying user name:    ANP10
#       Modification time:      Fri Oct 29 13:37:53 2021


@<TRIPOS>MOLECULE
T90
   32    33     1    0    0
SMALL
USER_CHARGES

File created by VEGA ZZ 3.2.1
@<TRIPOS>ATOM
      1 C          -0.1725   -2.0174   -0.0820 C.2       1 <1          0.1632
      2 SR          1.0023   -2.8225    0.8015 S.3       1 <1         -0.0373
      3 C           1.9500   -1.4298    0.8393 C.2       1 <1          0.1537
      4 NB          1.4509   -0.3172    0.2094 N.2       1 <1         -0.2340
      5 CV          0.2350   -0.7052   -0.3015 C.1       1 <1          0.0616
      6 N          -1.3632   -2.5794   -0.5223 N.pl3     1 <1          0.1601
      7 ON         -1.5877   -3.7214   -0.2592 O.2       1 <1         -0.1564
      8 ON         -2.1224   -1.9067   -1.1508 O.2       1 <1         -0.1564
      9 C1          5.3686   -0.2246    2.2371 C.2       1 <1         -0.0023
     10 C6          6.0871    0.9824    2.2158 C.2       1 <1         -0.0500
     11 C           4.0438   -0.2270    1.5421 C.2       1 <1          0.2301
     12 N           3.2985   -1.4067    1.5403 N.am      1 <1         -0.2031
     13 O           3.5827    0.7542    0.9759 O.2       1 <1         -0.2742
     14 H1          5.7611   -1.1242    2.7403 H         1 <1          0.0667
     15 H62         5.6946    1.8820    1.7126 H         1 <1          0.0625
     16 H           3.6542   -2.2430    2.0036 H         1 <1          0.1385
     17 C1          7.9130   -0.1735    3.5566 C.ar      1 <1         -0.0546
     18 O1          7.0817   -1.4215    3.5324 O.3       1 <1          0.0000
     19 H2          6.1075   -1.4237    3.0217 H         1 <1          0.0000
     20 C2          9.1487   -0.1707    4.2045 C.ar      1 <1         -0.0612
     21 O2          9.6459   -1.4161    4.8773 O.3       1 <1          0.0000
     22 H3         10.6201   -1.4139    5.3881 H         1 <1          0.0000
     23 C3          9.9216    0.9897    4.2267 C.ar      1 <1         -0.0617
     24 O3         11.2505    0.9920    4.9228 O.3       1 <1          0.0000
     25 H4         11.8602    1.9072    4.9403 H         1 <1          0.0000
     26 C4          9.4599    2.1486    3.6020 C.ar      1 <1         -0.0612
     27 O4         10.2918    3.3965    3.6269 O.3       1 <1          0.0000
     28 H5          9.9278    4.3101    3.1345 H         1 <1          0.0000
     29 C5          8.2242    2.1464    2.9541 C.ar      1 <1         -0.0546
     30 O5          7.7272    3.3921    2.2824 O.3       1 <1          0.0000
     31 H6          6.7530    3.3904    1.7716 H         1 <1          0.0000
     32 C6          7.4508    0.9849    2.9312 C.ar      1 <1         -0.0249
@<TRIPOS>BOND
     1    1    2 ar
     2    1    5 ar
     3    1    6 1
     4    2    3 ar
     5    3    4 ar
     6    3   12 am
     7    4    5 ar
     8    6    7 ar
     9    6    8 ar
    10    9   11 1
    11    9   14 1
    12    9   10 2
    13   10   15 1
    14   10   32 1
    15   11   12 am
    16   11   13 2
    17   12   16 1
    18   17   20 ar
    19   17   32 ar
    20   17   18 1
    21   18   19 1
    22   20   23 ar
    23   20   21 1
    24   21   22 1
    25   23   26 ar
    26   23   24 1
    27   24   25 1
    28   26   29 ar
    29   26   27 1
    30   27   28 1
    31   29   32 ar
    32   29   30 1
    33   30   31 1
@<TRIPOS>SUBSTRUCTURE
     1 <1          1 RESIDUE           1 A     <       0 ROOT
